powerfactory/powerfactory-converter/src/test/resources/VoltageLevelsAndSubstations.xiidm
<?xml version="1.0" encoding="UTF-8"?>
<iidm:network xmlns:iidm="http://www.powsybl.org/schema/iidm/1_17" id="VoltageLevelsAndSubstations" caseDate="2021-01-01T10:00:00.000+02:00" forecastDistance="0" sourceFormat="POWER-FACTORY" minimumValidationLevel="STEADY_STATE_HYPOTHESIS">
    <iidm:substation id="Substation1">
        <iidm:voltageLevel id="VoltageLevel1-400" nominalV="400.0" topologyKind="NODE_BREAKER">
            <iidm:nodeBreakerTopology>
                <iidm:busbarSection id="VoltageLevel1-400_1 Bus 1-Slack" node="0"/>
                <iidm:switch id="VoltageLevel1-400_Switch" kind="BREAKER" open="false" node1="0" node2="1"/>
                <iidm:switch id="VoltageLevel1-400_Switch#0" kind="BREAKER" open="false" node1="0" node2="2"/>
                <iidm:bus v="423.9999694824219" angle="0.0" nodes="0,1,2"/>
            </iidm:nodeBreakerTopology>
            <iidm:generator id="sym_1_1" energySource="OTHER" minP="0.0" maxP="50.470001220703125" targetP="50.470001220703125" localTargetV="423.9999771118164" localTargetQ="0.0" node="2">
                <iidm:minMaxReactiveLimits minQ="0.0" maxQ="0.0"/>
                <iidm:voltageRegulation mode="VOLTAGE" regulating="true"/>
            </iidm:generator>
        </iidm:voltageLevel>
    </iidm:substation>
    <iidm:substation id="Substation2">
        <iidm:voltageLevel id="VoltageLevel2-400" nominalV="400.0" topologyKind="NODE_BREAKER">
            <iidm:nodeBreakerTopology>
                <iidm:busbarSection id="VoltageLevel2-400_2 Bus 2" node="0"/>
                <iidm:switch id="VoltageLevel2-400_Switch" kind="BREAKER" open="false" node1="0" node2="1"/>
                <iidm:switch id="VoltageLevel2-400_Switch#0" kind="BREAKER" open="false" node1="0" node2="2"/>
                <iidm:bus v="418.62994384765625" angle="-1.461245059967041" nodes="0,1,2"/>
            </iidm:nodeBreakerTopology>
        </iidm:voltageLevel>
        <iidm:voltageLevel id="VoltageLevel2-20" nominalV="20.0" topologyKind="NODE_BREAKER">
            <iidm:nodeBreakerTopology>
                <iidm:busbarSection id="VoltageLevel2-20_3 Bus 2-Load" node="0"/>
                <iidm:switch id="VoltageLevel2-20_Switch" kind="BREAKER" open="false" node1="0" node2="1"/>
                <iidm:switch id="VoltageLevel2-20_Switch#0" kind="BREAKER" open="false" node1="0" node2="2"/>
                <iidm:bus v="20.805301666259766" angle="-2.0938339233398438" nodes="0,1,2"/>
            </iidm:nodeBreakerTopology>
            <iidm:load id="lod_3_1" loadType="UNDEFINED" p0="50.0" q0="25.0" node="1"/>
        </iidm:voltageLevel>
        <iidm:twoWindingsTransformer id="trf_2_3_1" r="0.0031199999227605408" x="0.09771995949237713" ratedU1="400.0" ratedU2="20.0" ratedS="29.760000228881836" node1="2" voltageLevelId1="VoltageLevel2-400" node2="2" voltageLevelId2="VoltageLevel2-20">
            <iidm:ratioTapChanger tapPosition="2" loadTapChangingCapabilities="false">
                <iidm:step rho="1.1111111111111112"/>
                <iidm:step rho="1.0526315789473684"/>
                <iidm:step rho="1.0"/>
                <iidm:step rho="0.9523809523809523"/>
                <iidm:step rho="0.9090909090909091"/>
            </iidm:ratioTapChanger>
        </iidm:twoWindingsTransformer>
    </iidm:substation>
    <iidm:line id="lne_1_2_1" r="31.007963180541992" x="94.67198181152344" b1="1.0815001583099366E-4" b2="1.0815001583099366E-4" node1="1" voltageLevelId1="VoltageLevel1-400" node2="1" voltageLevelId2="VoltageLevel2-400"/>
</iidm:network>
